sad/pglib_opf_case4020_goc__sad.m
%%%%%%%%%%%%%%%%%%%%%%%%%%%%%%%%%%%%%%%%%%%%%%%%%%%%%%%%%%%%%%%%%%%%%%%%%%%
%%%%                                                                  %%%%%
%%%%    IEEE PES Power Grid Library - Optimal Power Flow - v20.04     %%%%%
%%%%          (https://github.com/power-grid-lib/pglib-opf)           %%%%%
%%%%             Benchmark Group - Small Angle Difference             %%%%%
%%%%                         12 - July - 2020                         %%%%%
%%%%                                                                  %%%%%
%%%%%%%%%%%%%%%%%%%%%%%%%%%%%%%%%%%%%%%%%%%%%%%%%%%%%%%%%%%%%%%%%%%%%%%%%%%
function mpc = pglib_opf_case4020_goc__sad
mpc.version = '2';
mpc.baseMVA = 100.0;

%% bus data
%	bus_i	type	Pd	Qd	Gs	Bs	area	Vm	Va	baseKV	zone	Vmax	Vmin
mpc.bus = [
	35308	 2	 0.0	 0.0	 0.0	 0.0	 1	    1.00000	    0.00000	 500.0	 1	    1.10000	    0.90000;
	35309	 2	 0.0	 0.0	 0.0	 0.0	 1	    1.00000	    0.00000	 500.0	 1	    1.10000	    0.90000;
	35310	 2	 0.0	 0.0	 0.0	 0.0	 1	    1.00000	    0.00000	 500.0	 1	    1.10000	    0.90000;
	35311	 2	 0.0	 0.0	 0.0	 0.0	 1	    1.00000	    0.00000	 500.0	 1	    1.10000	    0.90000;
	35312	 1	 0.0	 0.0	 0.0	 0.0	 1	    1.00000	    0.00000	 500.0	 1	    1.10000	    0.90000;
	35313	 1	 0.0	 0.0	 0.0	 0.0	 1	    1.00000	    0.00000	 500.0	 1	    1.10000	    0.90000;
	35314	 1	 0.0	 0.0	 0.0	 0.0	 1	    1.00000	    0.00000	 500.0	 1	    1.10000	    0.90000;
	35315	 1	 0.0	 0.0	 0.0	 0.0	 1	    1.00000	    0.00000	 500.0	 1	    1.10000	    0.90000;
	35316	 2	 0.0	 0.0	 0.0	 0.0	 1	    1.00000	    0.00000	 500.0	 1	    1.10000	    0.90000;
	35317	 1	 0.0	 0.0	 0.0	 0.0	 1	    1.00000	    0.00000	 500.0	 1	    1.10000	    0.90000;
	35318	 1	 0.0	 0.0	 0.0	 0.0	 1	    1.00000	    0.00000	 500.0	 1	    1.10000	    0.90000;
	35319	 1	 0.0	 0.0	 0.0	 0.0	 1	    1.00000	    0.00000	 500.0	 1	    1.10000	    0.90000;
	35320	 1	 0.0	 0.0	 0.0	 0.0	 1	    1.00000	    0.00000	 500.0	 1	    1.10000	    0.90000;
	35321	 1	 0.0	 0.0	 0.0	 0.0	 1	    1.00000	    0.00000	 500.0	 1	    1.10000	    0.90000;
	35322	 2	 0.0	 0.0	 0.0	 0.0	 1	    1.00000	    0.00000	 500.0	 1	    1.10000	    0.90000;
	35323	 2	 0.0	 0.0	 0.0	 0.0	 1	    1.00000	    0.00000	 500.0	 1	    1.10000	    0.90000;
	35324	 1	 0.0	 0.0	 0.0	 0.0	 1	    1.00000	    0.00000	 500.0	 1	    1.10000	    0.90000;
	35325	 1	 0.0	 0.0	 0.0	 0.0	 1	    1.00000	    0.00000	 500.0	 1	    1.10000	    0.90000;
	35326	 2	 0.0	 0.0	 0.0	 0.0	 1	    1.00000	    0.00000	 138.0	 1	    1.10000	    0.90000;
	35327	 1	 0.0	 0.0	 0.0	 0.0	 1	    1.00000	    0.00000	 500.0	 1	    1.10000	    0.90000;
	35328	 1	 0.0	 0.0	 0.0	 0.0	 1	    1.00000	    0.00000	 138.0	 1	    1.10000	    0.90000;
	35329	 1	 0.0	 0.0	 0.0	 0.0	 1	    1.00000	    0.00000	 500.0	 1	    1.10000	    0.90000;
	35330	 2	 0.0	 0.0	 0.0	 0.0	 1	    1.00000	    0.00000	 138.0	 1	    1.10000	    0.90000;
	35331	 2	 0.0	 0.0	 0.0	 0.0	 1	    1.00000	    0.00000	 138.0	 1	    1.10000	    0.90000;
	35332	 2	 0.0	 0.0	 0.0	 0.0	 1	    1.00000	    0.00000	 138.0	 1	    1.10000	    0.90000;
	35333	 2	 0.0	 0.0	 0.0	 0.0	 1	    1.00000	    0.00000	 500.0	 1	    1.10000	    0.90000;
	35334	 1	 0.0	 0.0	 0.0	 0.0	 1	    1.00000	    0.00000	 230.0	 1	    1.10000	    0.90000;
	35335	 2	 0.0	 0.0	 0.0	 0.0	 1	    1.00000	    0.00000	 138.0	 1	    1.10000	    0.90000;
	35336	 2	 0.0	 0.0	 0.0	 0.0	 1	    1.00000	    0.00000	 138.0	 1	    1.10000	    0.90000;
	35337	 2	 0.0	 0.0	 0.0	 0.0	 1	    1.00000	    0.00000	 138.0	 1	    1.10000	    0.90000;
	35338	 1	 0.0	 0.0	 0.0	 0.0	 1	    1.00000	    0.00000	 345.0	 1	    1.10000	    0.90000;
	35339	 1	 0.0	 0.0	 0.0	 0.0	 1	    1.00000	    0.00000	 500.0	 1	    1.10000	    0.90000;
	35340	 1	 0.0	 0.0	 0.0	 0.0	 1	    1.00000	    0.00000	 345.0	 1	    1.10000	    0.90000;
	35341	 1	 0.0	 0.0	 0.0	 0.0	 1	    1.00000	    0.00000	 500.0	 1	    1.10000	    0.90000;
	35342	 1	 0.0	 0.0	 0.0	 0.0	 1	    1.00000	    0.00000	 138.0	 1	    1.10000	    0.90000;
	35377	 1	 0.0	 0.0	 0.0	 0.0	 1	    1.00000	    0.00000	 500.0	 1	    1.10000	    0.90000;
	35378	 1	 0.0	 0.0	 0.0	 0.0	 1	    1.00000	    0.00000	 500.0	 1	    1.10000	    0.90000;
	35379	 2	 0.0	 0.0	 0.0	 0.0	 1	    1.00000	    0.00000	 500.0	 1	    1.10000	    0.90000;
	35380	 1	 0.0	 0.0	 0.0	 0.0	 1	    1.00000	    0.00000	 500.0	 1	    1.10000	    0.90000;
	35381	 1	 0.0	 0.0	 0.0	 0.0	 1	    1.00000	    0.00000	 500.0	 1	    1.10000	    0.90000;
	35382	 2	 0.0	 0.0	 0.0	 0.0	 1	    1.00000	    0.00000	 500.0	 1	    1.10000	    0.90000;
	35383	 1	 0.0	 0.0	 0.0	 0.0	 1	    1.00000	    0.00000	 500.0	 1	    1.10000	    0.90000;
	35384	 1	 0.0	 0.0	 0.0	 0.0	 1	    1.00000	    0.00000	 500.0	 1	    1.10000	    0.90000;
	35385	 2	 0.0	 0.0	 0.0	 0.0	 1	    1.00000	    0.00000	 500.0	 1	    1.10000	    0.90000;
	35386	 1	 0.0	 0.0	 0.0	 0.0	 1	    1.00000	    0.00000	 500.0	 1	    1.10000	    0.90000;
	35387	 2	 0.0	 0.0	 0.0	 0.0	 1	    1.00000	    0.00000	 500.0	 1	    1.10000	    0.90000;
	35388	 1	 0.0	 0.0	 0.0	 0.0	 1	    1.00000	    0.00000	 500.0	 1	    1.10000	    0.90000;
	35389	 2	 0.0	 0.0	 0.0	 0.0	 1	    1.00000	    0.00000	 500.0	 1	    1.10000	    0.90000;
	35390	 1	 0.0	 0.0	 0.0	 0.0	 1	    1.00000	    0.00000	 345.0	 1	    1.10000	    0.90000;
	35391	 2	 0.0	 0.0	 0.0	 0.0	 1	    1.00000	    0.00000	 138.0	 1	    1.10000	    0.90000;
	35392	 1	 0.0	 0.0	 0.0	 0.0	 1	    1.00000	    0.00000	 500.0	 1	    1.10000	    0.90000;
	35393	 1	 0.0	 0.0	 0.0	 0.0	 1	    1.00000	    0.00000	 138.0	 1	    1.10000	    0.90000;
	35394	 2	 0.0	 0.0	 0.0	 0.0	 1	    1.00000	    0.00000	 500.0	 1	    1.10000	    0.90000;
	35395	 1	 0.0	 0.0	 0.0	 0.0	 1	    1.00000	    0.00000	 500.0	 1	    1.10000	    0.90000;
	35396	 2	 0.0	 0.0	 0.0	 0.0	 1	    1.00000	    0.00000	 138.0	 1	    1.10000	    0.90000;
	35397	 2	 0.0	 0.0	 0.0	 0.0	 1	    1.00000	    0.00000	 69.0	 1	    1.10000	    0.90000;
	35398	 2	 0.0	 0.0	 0.0	 0.0	 1	    1.00000	    0.00000	 138.0	 1	    1.10000	    0.90000;
	35399	 2	 0.0	 0.0	 0.0	 0.0	 1	    1.00000	    0.00000	 138.0	 1	    1.10000	    0.90000;
	35400	 1	 0.0	 0.0	 0.0	 0.0	 1	    1.00000	    0.00000	 500.0	 1	    1.10000	    0.90000;
	35401	 2	 0.0	 0.0	 0.0	 0.0	 1	    1.00000	    0.00000	 138.0	 1	    1.10000	    0.90000;
	35402	 1	 0.0	 0.0	 0.0	 0.0	 1	    1.00000	    0.00000	 500.0	 1	    1.10000	    0.90000;
	35403	 2	 0.0	 0.0	 0.0	 0.0	 1	    1.00000	    0.00000	 138.0	 1	    1.10000	    0.90000;
	35404	 1	 0.0	 0.0	 0.0	 0.0	 1	    1.00000	    0.00000	 138.0	 1	    1.10000	    0.90000;
	35405	 1	 0.0	 0.0	 0.0	 0.0	 1	    1.00000	    0.00000	 230.0	 1	    1.10000	    0.90000;
	35406	 2	 0.0	 0.0	 0.0	 0.0	 1	    1.00000	    0.00000	 138.0	 1	    1.10000	    0.90000;
	35407	 1	 0.0	 0.0	 0.0	 0.0	 1	    1.00000	    0.00000	 345.0	 1	    1.10000	    0.90000;
	35408	 2	 0.0	 0.0	 0.0	 0.0	 1	    1.00000	    0.00000	 138.0	 1	    1.10000	    0.90000;
	35409	 2	 0.0	 0.0	 0.0	 0.0	 1	    1.00000	    0.00000	 138.0	 1	    1.10000	    0.90000;
	35410	 2	 0.0	 0.0	 0.0	 0.0	 1	    1.00000	    0.00000	 138.0	 1	    1.10000	    0.90000;
	35411	 1	 0.0	 0.0	 0.0	 0.0	 1	    1.00000	    0.00000	 500.0	 1	    1.10000	    0.90000;
	35412	 2	 0.0	 0.0	 0.0	 0.0	 1	    1.00000	    0.00000	 138.0	 1	    1.10000	    0.90000;
	35413	 2	 0.0	 0.0	 0.0	 0.0	 1	    1.00000	    0.00000	 69.0	 1	    1.10000	    0.90000;
	35414	 1	 0.0	 0.0	 0.0	 0.0	 1	    1.00000	    0.00000	 500.0	 1	    1.10000	    0.90000;
	35415	 2	 0.0	 0.0	 0.0	 0.0	 1	    1.00000	    0.00000	 69.0	 1	    1.10000	    0.90000;
	35416	 2	 0.0	 0.0	 0.0	 0.0	 1	    1.00000	    0.00000	 138.0	 1	    1.10000	    0.90000;
	35417	 2	 0.0	 0.0	 0.0	 0.0	 1	    1.00000	    0.00000	 138.0	 1	    1.10000	    0.90000;
	35418	 2	 0.0	 0.0	 0.0	 0.0	 1	    1.00000	    0.00000	 69.0	 1	    1.10000	    0.90000;
	35419	 2	 0.0	 0.0	 0.0	 0.0	 1	    1.00000	    0.00000	 138.0	 1	    1.10000	    0.90000;
	35420	 2	 0.0	 0.0	 0.0	 0.0	 1	    1.00000	    0.00000	 69.0	 1	    1.10000	    0.90000;
	35421	 2	 0.0	 0.0	 0.0	 0.0	 1	    1.00000	    0.00000	 138.0	 1	    1.10000	    0.90000;
	35422	 2	 0.0	 0.0	 0.0	 0.0	 1	    1.00000	    0.00000	 69.0	 1	    1.10000	    0.90000;
	35423	 1	 0.0	 0.0	 0.0	 0.0	 1	    1.00000	    0.00000	 138.0	 1	    1.10000	    0.90000;
	36603	 1	 3.615	 0.741	 0.0	 0.0	 1	    1.00000	    0.00000	 69.0	 1	    1.10000	    0.90000;
	36604	 1	 5.932	 2.132	 0.0	 0.0	 1	    1.00000	    0.00000	 69.0	 1	    1.10000	    0.90000;
	36605	 1	 5.561	 2.039	 0.0	 0.0	 1	    1.00000	    0.00000	 69.0	 1	    1.10000	    0.90000;
	36606	 1	 0.0	 0.0	 0.0	 0.0	 1	    1.00000	    0.00000	 138.0	 1	    1.10000	    0.90000;
	36607	 1	 0.0	 0.0	 0.0	 0.0	 1	    1.00000	    0.00000	 138.0	 1	    1.10000	    0.90000;
	36608	 1	 5.839	 2.132	 0.0	 0.0	 1	    1.00000	    0.00000	 69.0	 1	    1.10000	    0.90000;
	36609	 1	 3.244	 1.39	 0.0	 0.0	 1	    1.00000	    0.00000	 138.0	 1	    1.10000	    0.90000;
	36610	 1	 6.21	 2.873	 0.0	 0.0	 1	    1.00000	    0.00000	 69.0	 1	    1.10000	    0.90000;
	36611	 1	 4.912	 2.039	 0.0	 0.0	 1	    1.00000	    0.00000	 138.0	 1	    1.10000	    0.90000;
	36612	 1	 0.0	 0.0	 0.0	 0.0	 1	    1.00000	    0.00000	 138.0	 1	    1.10000	    0.90000;
	36613	 1	 0.0	 0.0	 0.0	 31.9999604565	 1	    1.00000	    0.00000	 138.0	 1	    1.10000	    0.90000;
	36614	 1	 2.781	 0.556	 0.0	 0.00040296557369	 1	    1.00000	    0.00000	 69.0	 1	    1.10000	    0.90000;
	36615	 1	 6.488	 0.927	 0.0	 0.0	 1	    1.00000	    0.00000	 69.0	 1	    1.10000	    0.90000;
	36616	 1	 0.0	 0.0	 0.0	 0.0	 1	    1.00000	    0.00000	 138.0	 1	    1.10000	    0.90000;
	36617	 1	 0.0	 0.0	 0.0	 0.0	 1	    1.00000	    0.00000	 138.0	 1	    1.10000	    0.90000;
	36618	 1	 20.854	 6.673	 0.0	 0.0	 1	    1.00000	    0.00000	 69.0	 1	    1.10000	    0.90000;
	36619	 1	 3.707	 1.576	 0.0	 0.0	 1	    1.00000	    0.00000	 138.0	 1	    1.10000	    0.90000;
	36620	 1	 5.654	 2.039	 0.0	 0.0	 1	    1.00000	    0.00000	 69.0	 1	    1.10000	    0.90000;
	36621	 1	 14.366	 6.302	 0.0	 0.0	 1	    1.00000	    0.00000	 69.0	 1	    1.10000	    0.90000;
	36622	 1	 3.522	 1.298	 0.0	 0.0	 1	    1.00000	    0.00000	 69.0	 1	    1.10000	    0.90000;
	36623	 1	 0.0	 0.0	 0.0	 0.0	 1	    1.00000	    0.00000	 500.0	 1	    1.10000	    0.90000;
	36624	 1	 7.785	 2.688	 0.0	 0.0	 1	    1.00000	    0.00000	 69.0	 1	    1.10000	    0.90000;
	36625	 1	 17.054	 6.395	 0.0	 0.0	 1	    1.00000	    0.00000	 69.0	 1	    1.10000	    0.90000;
	36626	 1	 8.527	 2.966	 0.0	 0.0	 1	    1.00000	    0.00000	 69.0	 1	    1.10000	    0.90000;
	36627	 1	 0.0	 0.0	 0.0	 0.0	 1	    1.00000	    0.00000	 500.0	 1	    1.10000	    0.90000;
	36628	 1	 0.0	 0.0	 0.0	 0.0	 1	    1.00000	    0.00000	 138.0	 1	    1.10000	    0.90000;
	36629	 1	 0.0	 0.0	 0.0	 0.0	 1	    1.00000	    0.00000	 138.0	 1	    1.10000	    0.90000;
	36630	 1	 0.0	 0.0	 0.0	 0.0	 1	    1.00000	    0.00000	 230.0	 1	    1.10000	    0.90000;
	36631	 1	 0.0	 0.0	 0.0	 0.0	 1	    1.00000	    0.00000	 138.0	 1	    1.10000	    0.90000;
	36632	 1	 7.878	 3.429	 0.0	 0.0	 1	    1.00000	    0.00000	 69.0	 1	    1.10000	    0.90000;
	36633	 1	 0.0	 0.0	 0.0	 0.0	 1	    1.00000	    0.00000	 138.0	 1	    1.10000	    0.90000;
	36634	 1	 3.707	 1.483	 0.0	 0.0	 1	    1.00000	    0.00000	 69.0	 1	    1.10000	    0.90000;
	36635	 1	 0.0	 0.0	 0.0	 0.0	 1	    1.00000	    0.00000	 138.0	 1	    1.10000	    0.90000;
	36636	 1	 12.234	 4.727	 0.0	 0.0	 1	    1.00000	    0.00000	 69.0	 1	    1.10000	    0.90000;
	36637	 1	 0.0	 0.0	 0.0	 0.0	 1	    1.00000	    0.00000	 138.0	 1	    1.10000	    0.90000;
	36638	 1	 12.512	 5.098	 0.0	 0.0	 1	    1.00000	    0.00000	 69.0	 1	    1.10000	    0.90000;
	36639	 1	 4.634	 1.854	 0.0	 0.0	 1	    1.00000	    0.00000	 69.0	 1	    1.10000	    0.90000;
	36640	 1	 3.244	 1.39	 0.0	 0.0	 1	    1.00000	    0.00000	 69.0	 1	    1.10000	    0.90000;
	36641	 1	 12.883	 3.985	 0.0	 0.0	 1	    1.00000	    0.00000	 69.0	 1	    1.10000	    0.90000;
	36642	 1	 0.0	 0.0	 0.0	 0.0	 1	    1.00000	    0.00000	 138.0	 1	    1.10000	    0.90000;
	36643	 1	 0.0	 0.0	 0.0	 0.0	 1	    1.00000	    0.00000	 138.0	 1	    1.10000	    0.90000;
	36644	 1	 6.395	 2.873	 0.0	 0.0	 1	    1.00000	    0.00000	 69.0	 1	    1.10000	    0.90000;
	36645	 1	 7.878	 2.781	 0.0	 0.0	 1	    1.00000	    0.00000	 69.0	 1	    1.10000	    0.90000;
	36646	 1	 26.322	 11.493	 0.0	 0.0	 1	    1.00000	    0.00000	 138.0	 1	    1.10000	    0.90000;
	36647	 1	 46.712	 14.459	 0.0	 0.0	 1	    1.00000	    0.00000	 345.0	 1	    1.10000	    0.90000;
	36648	 1	 0.0	 0.0	 0.0	 0.0	 1	    1.00000	    0.00000	 500.0	 1	    1.10000	    0.90000;
	36649	 1	 0.0	 0.0	 0.0	 0.0	 1	    1.00000	    0.00000	 138.0	 1	    1.10000	    0.90000;
	36650	 1	 22.986	 8.898	 0.0	 0.0	 1	    1.00000	    0.00000	 138.0	 1	    1.10000	    0.90000;
	36651	 1	 0.0	 0.0	 0.0	 0.0	 1	    1.00000	    0.00000	 138.0	 1	    1.10000	    0.90000;
	36652	 1	 10.844	 4.171	 0.0	 0.0	 1	    1.00000	    0.00000	 69.0	 1	    1.10000	    0.90000;
	36653	 1	 0.0	 0.0	 0.0	 0.0	 1	    1.00000	    0.00000	 500.0	 1	    1.10000	    0.90000;
	36654	 1	 17.054	 6.488	 0.0	 0.0	 1	    1.00000	    0.00000	 138.0	 1	    1.10000	    0.90000;
	36655	 1	 8.156	 3.522	 0.0	 0.0	 1	    1.00000	    0.00000	 138.0	 1	    1.10000	    0.90000;
	36656	 1	 10.751	 5.005	 0.0	 0.0	 1	    1.00000	    0.00000	 138.0	 1	    1.10000	    0.90000;
	36657	 1	 36.332	 12.605	 0.0	 0.0	 1	    1.00000	    0.00000	 138.0	 1	    1.10000	    0.90000;
	36658	 1	 0.0	 0.0	 0.0	 0.0	 1	    1.00000	    0.00000	 138.0	 1	    1.10000	    0.90000;
	36659	 1	 13.81	 5.839	 0.0	 0.0	 1	    1.00000	    0.00000	 138.0	 1	    1.10000	    0.90000;
	36660	 1	 0.0	 0.0	 0.0	 0.0	 1	    1.00000	    0.00000	 138.0	 1	    1.10000	    0.90000;
	36661	 1	 0.0	 0.0	 0.0	 0.0	 1	    1.00000	    0.00000	 138.0	 1	    1.10000	    0.90000;
	36662	 1	 6.21	 2.595	 0.0	 0.0	 1	    1.00000	    0.00000	 69.0	 1	    1.10000	    0.90000;
	36663	 1	 0.0	 0.0	 0.0	 0.0	 1	    1.00000	    0.00000	 138.0	 1	    1.10000	    0.90000;
	36664	 1	 14.922	 6.302	 0.0	 0.0	 1	    1.00000	    0.00000	 69.0	 1	    1.10000	    0.90000;
	36665	 1	 56.166	 20.112	 0.0	 0.0	 1	    1.00000	    0.00000	 138.0	 1	    1.10000	    0.90000;
	36666	 1	 8.249	 3.337	 0.0	 0.0	 1	    1.00000	    0.00000	 69.0	 1	    1.10000	    0.90000;
	36667	 1	 24.932	 8.712	 0.0	 0.0	 1	    1.00000	    0.00000	 138.0	 1	    1.10000	    0.90000;
	36668	 1	 0.0	 0.0	 0.0	 0.0	 1	    1.00000	    0.00000	 138.0	 1	    1.10000	    0.90000;
	36669	 1	 17.424	 7.229	 0.0	 0.0	 1	    1.00000	    0.00000	 138.0	 1	    1.10000	    0.90000;
	36670	 1	 8.063	 0.649	 0.0	 0.0	 1	    1.00000	    0.00000	 138.0	 1	    1.10000	    0.90000;
	36671	 1	 20.39	 4.449	 0.0	 0.0	 1	    1.00000	    0.00000	 69.0	 1	    1.10000	    0.90000;
	36672	 1	 10.195	 3.151	 0.0	 0.0	 1	    1.00000	    0.00000	 69.0	 1	    1.10000	    0.90000;
	36673	 1	 6.302	 2.317	 0.0	 0.0	 1	    1.00000	    0.00000	 69.0	 1	    1.10000	    0.90000;
	36674	 1	 0.0	 0.0	 0.0	 0.0	 1	    1.00000	    0.00000	 345.0	 1	    1.10000	    0.90000;
	36675	 1	 8.434	 3.707	 0.0	 0.0	 1	    1.00000	    0.00000	 69.0	 1	    1.10000	    0.90000;
	36676	 1	 7.137	 2.224	 0.0	 0.0	 1	    1.00000	    0.00000	 69.0	 1	    1.10000	    0.90000;
	36677	 1	 0.0	 0.0	 0.0	 0.0	 1	    1.00000	    0.00000	 138.0	 1	    1.10000	    0.90000;
	36678	 1	 9.083	 3.337	 0.0	 0.0	 1	    1.00000	    0.00000	 69.0	 1	    1.10000	    0.90000;
	36679	 1	 7.322	 3.151	 0.0	 0.0	 1	    1.00000	    0.00000	 69.0	 1	    1.10000	    0.90000;
	36680	 1	 7.971	 3.707	 0.0	 0.0	 1	    1.00000	    0.00000	 69.0	 1	    1.10000	    0.90000;
	36681	 1	 13.254	 5.468	 0.0	 0.0	 1	    1.00000	    0.00000	 69.0	 1	    1.10000	    0.90000;
	36682	 1	 13.995	 6.024	 0.0	 0.0	 1	    1.00000	    0.00000	 69.0	 1	    1.10000	    0.90000;
	36683	 1	 0.0	 0.0	 0.0	 0.0	 1	    1.00000	    0.00000	 138.0	 1	    1.10000	    0.90000;
	36684	 1	 45.786	 14.181	 0.0	 0.0	 1	    1.00000	    0.00000	 230.0	 1	    1.10000	    0.90000;
	36685	 1	 160.806	 44.117	 0.0	 0.0	 1	    1.00000	    0.00000	 500.0	 1	    1.10000	    0.90000;
	36686	 1	 13.532	 5.376	 0.0	 0.0	 1	    1.00000	    0.00000	 138.0	 1	    1.10000	    0.90000;
	36687	 1	 20.946	 7.415	 0.0	 0.0	 1	    1.00000	    0.00000	 138.0	 1	    1.10000	    0.90000;
	36688	 1	 19.0	 7.693	 0.0	 0.0	 1	    1.00000	    0.00000	 138.0	 1	    1.10000	    0.90000;
	36689	 1	 0.0	 0.0	 0.0	 0.0	 1	    1.00000	    0.00000	 138.0	 1	    1.10000	    0.90000;
	36690	 1	 14.644	 4.912	 0.0	 0.0	 1	    1.00000	    0.00000	 69.0	 1	    1.10000	    0.90000;
	36691	 1	 0.0	 0.0	 0.0	 0.0	 1	    1.00000	    0.00000	 500.0	 1	    1.10000	    0.90000;
	36692	 1	 8.249	 3.8	 0.0	 0.0	 1	    1.00000	    0.00000	 69.0	 1	    1.10000	    0.90000;
	36693	 1	 0.0	 0.0	 0.0	 0.0	 1	    1.00000	    0.00000	 138.0	 1	    1.10000	    0.90000;
	36694	 1	 9.824	 3.985	 0.0	 0.0	 1	    1.00000	    0.00000	 500.0	 1	    1.10000	    0.90000;
	36695	 1	 0.0	 0.0	 0.0	 0.0	 1	    1.00000	    0.00000	 500.0	 1	    1.10000	    0.90000;
	36696	 1	 11.215	 4.634	 0.0	 0.0	 1	    1.00000	    0.00000	 138.0	 1	    1.10000	    0.90000;
	36697	 1	 3.059	 1.205	 0.0	 0.0	 1	    1.00000	    0.00000	 69.0	 1	    1.10000	    0.90000;
	36698	 1	 5.005	 2.41	 0.0	 0.0	 1	    1.00000	    0.00000	 138.0	 1	    1.10000	    0.90000;
	36699	 1	 0.0	 0.0	 0.0	 0.0	 1	    1.00000	    0.00000	 138.0	 1	    1.10000	    0.90000;
	36700	 1	 2.224	 0.927	 0.0	 0.0	 1	    1.00000	    0.00000	 138.0	 1	    1.10000	    0.90000;
	36701	 1	 2.688	 1.205	 0.0	 0.0	 1	    1.00000	    0.00000	 138.0	 1	    1.10000	    0.90000;
	36702	 1	 0.0	 0.0	 0.0	 0.0	 1	    1.00000	    0.00000	 138.0	 1	    1.10000	    0.90000;
	36703	 1	 12.512	 4.356	 0.0	 0.0	 1	    1.00000	    0.00000	 138.0	 1	    1.10000	    0.90000;
	36704	 1	 0.0	 0.0	 0.0	 0.0	 1	    1.00000	    0.00000	 138.0	 1	    1.10000	    0.90000;
	36705	 1	 0.0	 0.0	 0.0	 0.0	 1	    1.00000	    0.00000	 138.0	 1	    1.10000	    0.90000;
	36706	 1	 7.878	 3.059	 0.0	 0.0	 1	    1.00000	    0.00000	 69.0	 1	    1.10000	    0.90000;
	36707	 1	 3.429	 1.483	 0.0	 0.0	 1	    1.00000	    0.00000	 69.0	 1	    1.10000	    0.90000;
	36708	 1	 5.839	 2.781	 0.0	 0.0	 1	    1.00000	    0.00000	 69.0	 1	    1.10000	    0.90000;
	36709	 1	 8.805	 3.985	 0.0	 0.0	 1	    1.00000	    0.00000	 69.0	 1	    1.10000	    0.90000;
	36710	 1	 8.156	 3.707	 0.0	 0.0	 1	    1.00000	    0.00000	 69.0	 1	    1.10000	    0.90000;
	36711	 1	 0.0	 0.0	 0.0	 0.0	 1	    1.00000	    0.00000	 138.0	 1	    1.10000	    0.90000;
	36712	 1	 6.581	 3.059	 0.0	 0.0	 1	    1.00000	    0.00000	 138.0	 1	    1.10000	    0.90000;
	36713	 1	 10.844	 4.541	 0.0	 0.0	 1	    1.00000	    0.00000	 69.0	 1	    1.10000	    0.90000;
	36714	 1	 7.693	 3.707	 0.0	 0.0	 1	    1.00000	    0.00000	 69.0	 1	    1.10000	    0.90000;
	36715	 1	 0.0	 0.0	 0.0	 0.0	 1	    1.00000	    0.00000	 138.0	 1	    1.10000	    0.90000;
	36716	 1	 0.0	 0.0	 0.0	 0.0	 1	    1.00000	    0.00000	 138.0	 1	    1.10000	    0.90000;
	36717	 1	 0.0	 0.0	 0.0	 0.0	 1	    1.00000	    0.00000	 138.0	 1	    1.10000	    0.90000;
	36718	 1	 0.0	 0.0	 0.0	 0.0	 1	    1.00000	    0.00000	 138.0	 1	    1.10000	    0.90000;
	36719	 1	 5.098	 1.946	 0.0	 0.0	 1	    1.00000	    0.00000	 69.0	 1	    1.10000	    0.90000;
	36720	 1	 0.0	 0.0	 0.0	 0.0	 1	    1.00000	    0.00000	 138.0	 1	    1.10000	    0.90000;
...
];

%% generator data
%	bus	Pg	Qg	Qmax	Qmin	Vg	mBase	status	Pmax	Pmin
mpc.gen = [
	35308	 606.0	 58.3	 373.9	 -257.3	 1.0	 100.0	 1	 772.0	 440.0;
	35309	 943.1	 86.85	 557.1	 -383.4	 1.0	 100.0	 1	 1150.2	 736.0;
	35310	 150.0	 28.5	 123.3	 -66.3	 1.0	 100.0	 1	 220.0	 80.0;
	35310	 353.55	 42.75	 274.2	 -188.7	 1.0	 100.0	 1	 566.1	 141.0;
	35311	 356.95	 42.05	 269.7	 -185.6	 1.0	 100.0	 1	 556.9	 157.0;
	35311	 355.65	 42.0	 269.4	 -185.4	 1.0	 100.0	 1	 556.3	 155.0;
	35311	 354.6	 42.0	 269.4	 -185.4	 1.0	 100.0	 1	 556.2	 153.0;
	35311	 353.25	 42.0	 269.5	 -185.5	 1.0	 100.0	 1	 556.5	 150.0;
	35316	 558.15	 61.65	 395.4	 -272.1	 1.0	 100.0	 1	 816.3	 300.0;
	35322	 176.0	 38.95	 168.6	 -90.7	 1.0	 100.0	 1	 272.0	 80.0;
	35323	 126.6	 23.35	 101.1	 -54.4	 1.0	 100.0	 1	 163.2	 90.0;
	35323	 216.05	 21.3	 136.6	 -94.0	 1.0	 100.0	 1	 282.1	 150.0;
	35326	 59.4	 7.5	 47.9	 -32.9	 1.0	 100.0	 1	 98.8	 20.0;
	35326	 68.0	 13.75	 59.5	 -32.0	 1.0	 100.0	 1	 96.0	 40.0;
	35330	 6.325	 0.8125	 5.175	 -3.55	 1.0	 100.0	 1	 10.65	 2.0;
	35330	 6.325	 0.8125	 5.175	 -3.55	 1.0	 100.0	 1	 10.65	 2.0;
	35330	 6.325	 0.8125	 5.175	 -3.55	 1.0	 100.0	 1	 10.65	 2.0;
	35330	 6.325	 0.8125	 5.175	 -3.55	 1.0	 100.0	 1	 10.65	 2.0;
	35330	 6.325	 0.8125	 5.175	 -3.55	 1.0	 100.0	 1	 10.65	 2.0;
	35330	 6.325	 0.8125	 5.175	 -3.55	 1.0	 100.0	 1	 10.65	 2.0;
	35330	 6.325	 0.8125	 5.175	 -3.55	 1.0	 100.0	 1	 10.65	 2.0;
	35330	 6.325	 0.8125	 5.175	 -3.55	 1.0	 100.0	 1	 10.65	 2.0;
	35331	 56.0	 10.75	 46.5	 -25.0	 1.0	 100.0	 1	 75.0	 37.0;
	35331	 75.3	 16.25	 70.4	 -37.9	 1.0	 100.0	 1	 113.6	 37.0;
	35332	 50.625	 10.25	 45.5	 -25.0	 1.0	 100.0	 1	 75.0	 26.25;
	35333	 65.5	 5.3	 33.9	 -23.3	 1.0	 100.0	 1	 70.0	 61.0;
	35335	 45.0	 3.4	 21.8	 -15.0	 1.0	 100.0	 1	 45.0	 45.0;
	35335	 45.0	 3.4	 21.8	 -15.0	 1.0	 100.0	 1	 45.0	 45.0;
	35335	 45.0	 3.4	 21.8	 -15.0	 1.0	 100.0	 1	 45.0	 45.0;
	35335	 45.0	 3.4	 21.8	 -15.0	 1.0	 100.0	 1	 45.0	 45.0;
	35335	 45.0	 3.4	 21.8	 -15.0	 1.0	 100.0	 1	 45.0	 45.0;
	35335	 45.0	 3.4	 21.8	 -15.0	 1.0	 100.0	 1	 45.0	 45.0;
	35336	 30.65	 0.0	 18.1	 -18.1	 1.0	 100.0	 1	 42.4	 18.9;
	35336	 30.65	 0.0	 18.1	 -18.1	 1.0	 100.0	 1	 42.4	 18.9;
	35336	 31.75	 0.0	 19.0	 -19.0	 1.0	 100.0	 1	 44.6	 18.9;
	35336	 31.75	 0.0	 19.0	 -19.0	 1.0	 100.0	 1	 44.6	 18.9;
	35336	 31.75	 0.0	 19.0	 -19.0	 1.0	 100.0	 1	 44.6	 18.9;
	35337	 27.8	 4.65	 20.2	 -10.9	 1.0	 100.0	 1	 32.6	 23.0;
	35337	 129.5	 25.5	 110.3	 -59.3	 1.0	 100.0	 1	 178.0	 81.0;
	35379	 1173.1	 92.15	 591.1	 -406.8	 1.0	 100.0	 1	 1220.5	 1125.7;
	35382	 14.45	 1.8	 11.6	 -8.0	 1.0	 100.0	 1	 23.9	 5.0;
	35382	 14.45	 1.8	 11.6	 -8.0	 1.0	 100.0	 1	 23.9	 5.0;
	35382	 14.45	 1.8	 11.6	 -8.0	 1.0	 100.0	 1	 23.9	 5.0;
	35382	 14.45	 1.8	 11.6	 -8.0	 1.0	 100.0	 1	 23.9	 5.0;
	35382	 14.45	 1.8	 11.6	 -8.0	 1.0	 100.0	 1	 23.9	 5.0;
	35382	 14.45	 1.8	 11.6	 -8.0	 1.0	 100.0	 1	 23.9	 5.0;
	35382	 249.0	 24.9	 159.8	 -110.0	 1.0	 100.0	 1	 330.0	 168.0;
	35382	 249.0	 42.9	 195.8	 -110.0	 1.0	 100.0	 1	 330.0	 168.0;
	35382	 72.25	 6.35	 40.9	 -28.2	 1.0	 100.0	 1	 84.5	 60.0;
	35385	 127.7	 14.0	 89.8	 -61.8	 1.0	 100.0	 1	 185.4	 70.0;
	35385	 130.6	 14.45	 92.6	 -63.7	 1.0	 100.0	 1	 191.2	 70.0;
	35385	 130.6	 14.45	 92.6	 -63.7	 1.0	 100.0	 1	 191.2	 70.0;
	35387	 72.25	 6.35	 40.9	 -28.2	 1.0	 100.0	 1	 84.5	 60.0;
	35387	 73.1	 6.5	 41.7	 -28.7	 1.0	 100.0	 1	 86.2	 60.0;
	35387	 73.1	 6.5	 41.7	 -28.7	 1.0	 100.0	 1	 86.2	 60.0;
	35387	 73.1	 6.5	 41.7	 -28.7	 1.0	 100.0	 1	 86.2	 60.0;
	35387	 73.1	 6.5	 41.7	 -28.7	 1.0	 100.0	 1	 86.2	 60.0;
	35387	 177.2	 19.45	 124.8	 -85.9	 1.0	 100.0	 1	 257.6	 96.8;
	35387	 72.25	 6.35	 40.9	 -28.2	 1.0	 100.0	 1	 84.5	 60.0;
	35389	 101.0	 8.95	 57.2	 -39.3	 1.0	 100.0	 1	 118.0	 84.0;
	35389	 101.0	 8.95	 57.2	 -39.3	 1.0	 100.0	 1	 118.0	 84.0;
	35389	 93.5	 8.45	 54.2	 -37.3	 1.0	 100.0	 1	 112.0	 75.0;
	35389	 93.5	 8.45	 54.2	 -37.3	 1.0	 100.0	 1	 112.0	 75.0;
	35391	 11.5335	 0.0	 6.933	 -6.933	 1.0	 100.0	 1	 21.067	 2.0;
	35391	 11.5335	 0.0	 6.933	 -6.933	 1.0	 100.0	 1	 21.067	 2.0;
	35391	 11.5335	 0.0	 6.933	 -6.933	 1.0	 100.0	 1	 21.067	 2.0;
	35391	 13.5	 0.0	 8.2	 -8.2	 1.0	 100.0	 1	 25.0	 2.0;
	35394	 43.6	 10.9	 39.2	 -17.4	 1.0	 100.0	 1	 52.2	 35.0;
	35394	 43.6	 10.9	 39.2	 -17.4	 1.0	 100.0	 1	 52.2	 35.0;
	35394	 43.6	 10.9	 39.2	 -17.4	 1.0	 100.0	 1	 52.2	 35.0;
	35396	 12.3	 3.467	 12.467	 -5.533	 1.0	 100.0	 1	 16.6	 8.0;
	35396	 12.3	 3.467	 12.467	 -5.533	 1.0	 100.0	 1	 16.6	 8.0;
	35396	 12.3	 3.467	 12.467	 -5.533	 1.0	 100.0	 1	 16.6	 8.0;
	35397	 31.85	 3.4	 21.8	 -15.0	 1.0	 100.0	 1	 45.0	 18.7;
	35398	 45.0	 3.4	 21.8	 -15.0	 1.0	 100.0	 1	 45.0	 45.0;
	35398	 45.0	 3.4	 21.8	 -15.0	 1.0	 100.0	 1	 45.0	 45.0;
	35398	 45.0	 3.4	 21.8	 -15.0	 1.0	 100.0	 1	 45.0	 45.0;
	35399	 27.25	 3.15	 20.1	 -13.8	 1.0	 100.0	 1	 41.4	 13.1;
	35399	 32.65	 3.95	 25.3	 -17.4	 1.0	 100.0	 1	 52.2	 13.1;
	35401	 25.6	 0.0	 13.1	 -13.1	 1.0	 100.0	 1	 39.9	 11.3;
	35401	 25.6	 0.0	 13.1	 -13.1	 1.0	 100.0	 1	 39.9	 11.3;
	35401	 25.6	 0.0	 13.1	 -13.1	 1.0	 100.0	 1	 39.9	 11.3;
	35401	 25.6	 0.0	 13.1	 -13.1	 1.0	 100.0	 1	 39.9	 11.3;
	35403	 12.0	 0.9	 5.8	 -4.0	 1.0	 100.0	 1	 12.0	 12.0;
	35403	 12.0	 0.9	 5.8	 -4.0	 1.0	 100.0	 1	 12.0	 12.0;
	35403	 12.0	 0.9	 5.8	 -4.0	 1.0	 100.0	 1	 12.0	 12.0;
	35406	 12.925	 1.925	 9.45	 -5.6	 1.0	 100.0	 1	 16.85	 9.0;
	35406	 12.925	 1.925	 9.45	 -5.6	 1.0	 100.0	 1	 16.85	 9.0;
	35408	 33.3	 2.5	 16.1	 -11.1	 1.0	 100.0	 1	 33.3	 33.3;
	35408	 33.3	 2.5	 16.1	 -11.1	 1.0	 100.0	 1	 33.3	 33.3;
	35408	 33.3	 2.5	 16.1	 -11.1	 1.0	 100.0	 1	 33.3	 33.3;
	35409	 23.45	 2.45	 15.7	 -10.8	 1.0	 100.0	 1	 32.4	 14.5;
	35409	 23.95	 2.55	 16.2	 -11.1	 1.0	 100.0	 1	 33.4	 14.5;
	35409	 24.55	 2.65	 16.8	 -11.5	 1.0	 100.0	 1	 34.6	 14.5;
	35409	 24.55	 2.65	 16.8	 -11.5	 1.0	 100.0	 1	 34.6	 14.5;
	35410	 22.85	 2.4	 15.3	 -10.5	 1.0	 100.0	 1	 31.5	 14.2;
	35410	 25.35	 2.75	 17.7	 -12.2	 1.0	 100.0	 1	 36.5	 14.2;
	35410	 27.2	 3.15	 20.1	 -13.8	 1.0	 100.0	 1	 41.4	 13.0;
	35410	 27.2	 3.15	 20.1	 -13.8	 1.0	 100.0	 1	 41.4	 13.0;
	35412	 24.65	 0.0	 9.7	 -9.7	 1.0	 100.0	 1	 29.6	 19.7;
	35412	 28.85	 0.0	 12.5	 -12.5	 1.0	 100.0	 1	 38.0	 19.7;
	35412	 29.0	 0.0	 12.6	 -12.6	 1.0	 100.0	 1	 38.3	 19.7;
	35413	 19.8	 2.15	 13.9	 -9.6	 1.0	 100.0	 1	 28.8	 10.8;
	35415	 28.0	 2.15	 13.6	 -9.3	 1.0	 100.0	 1	 28.0	 28.0;
	35416	 13.5	 0.0	 10.7	 -10.7	 1.0	 100.0	 1	 27.0	 0.0;
	35417	 25.0	 3.6	 15.5	 -8.3	 1.0	 100.0	 1	 25.0	 25.0;
	35417	 25.0	 3.6	 15.5	 -8.3	 1.0	 100.0	 1	 25.0	 25.0;
	35417	 25.0	 3.6	 15.5	 -8.3	 1.0	 100.0	 1	 25.0	 25.0;
	35417	 26.85	 4.1	 17.8	 -9.6	 1.0	 100.0	 1	 28.7	 25.0;
	35418	 13.0	 0.0	 8.2	 -8.2	 1.0	 100.0	 1	 25.0	 1.0;
	35419	 18.55	 1.85	 11.8	 -8.1	 1.0	 100.0	 1	 24.3	 12.8;
	35419	 18.55	 1.85	 11.8	 -8.1	 1.0	 100.0	 1	 24.3	 12.8;
	35419	 20.55	 2.1	 13.3	 -9.1	 1.0	 100.0	 1	 27.4	 13.7;
	35419	 20.8	 2.1	 13.5	 -9.3	 1.0	 100.0	 1	 27.9	 13.7;
	35420	 8.75	 2.4	 8.65	 -3.85	 1.0	 100.0	 1	 11.5	 6.0;
	35420	 8.75	 2.4	 8.65	 -3.85	 1.0	 100.0	 1	 11.5	 6.0;
	35421	 26.0	 0.0	 16.4	 -16.4	 1.0	 100.0	 1	 50.0	 2.0;
	35421	 12.25	 1.7	 10.9	 -7.5	 1.0	 100.0	 1	 22.5	 2.0;
	35422	 1.2	 0.1545	 0.973	 -0.664	 1.0	 100.0	 1	 2.0	 0.4;
	35422	 1.2	 0.1545	 0.973	 -0.664	 1.0	 100.0	 1	 2.0	 0.4;
	35422	 1.2	 0.1545	 0.973	 -0.664	 1.0	 100.0	 1	 2.0	 0.4;
	35422	 1.2	 0.1545	 0.973	 -0.664	 1.0	 100.0	 1	 2.0	 0.4;
	35422	 1.2	 0.1545	 0.973	 -0.664	 1.0	 100.0	 1	 2.0	 0.4;
	35422	 1.2	 0.1545	 0.973	 -0.664	 1.0	 100.0	 1	 2.0	 0.4;
	35422	 1.2	 0.1545	 0.973	 -0.664	 1.0	 100.0	 1	 2.0	 0.4;
	35422	 1.2	 0.1545	 0.973	 -0.664	 1.0	 100.0	 1	 2.0	 0.4;
	35422	 1.2	 0.1545	 0.973	 -0.664	 1.0	 100.0	 1	 2.0	 0.4;
	35422	 1.2	 0.1545	 0.973	 -0.664	 1.0	 100.0	 1	 2.0	 0.4;
	35422	 1.2	 0.1545	 0.973	 -0.664	 1.0	 100.0	 1	 2.0	 0.4;
	75435	 554.0	 53.15	 341.0	 -234.7	 1.0	 100.0	 1	 704.0	 404.0;
	75435	 552.5	 53.15	 341.0	 -234.7	 1.0	 100.0	 1	 704.0	 401.0;
	75439	 150.0	 28.5	 123.3	 -66.3	 1.0	 100.0	 1	 220.0	 80.0;
	75439	 139.5	 28.5	 123.3	 -66.3	 1.0	 100.0	 1	 199.0	 80.0;
	75439	 139.5	 28.5	 123.3	 -66.3	 1.0	 100.0	 1	 199.0	 80.0;
	75439	 139.5	 28.5	 123.3	 -66.3	 1.0	 100.0	 1	 199.0	 80.0;
	75439	 139.5	 28.5	 123.3	 -66.3	 1.0	 100.0	 1	 199.0	 80.0;
	75444	 404.7	 38.45	 246.7	 -169.8	 1.0	 100.0	 1	 509.4	 300.0;
	75446	 316.3	 34.9	 224.0	 -154.2	 1.0	 100.0	 1	 462.6	 170.0;
	75446	 359.3	 41.05	 263.3	 -181.2	 1.0	 100.0	 1	 543.6	 175.0;
	75450	 254.7	 47.15	 204.1	 -109.8	 1.0	 100.0	 1	 329.4	 180.0;
	75450	 254.7	 47.15	 204.1	 -109.8	 1.0	 100.0	 1	 329.4	 180.0;
	75450	 251.3	 0.0	 104.3	 -104.3	 1.0	 100.0	 1	 357.6	 145.0;
	75450	 436.05	 0.0	 172.7	 -172.7	 1.0	 100.0	 1	 592.1	 280.0;
	75453	 227.0	 22.1	 141.9	 -97.7	 1.0	 100.0	 1	 293.0	 161.0;
	75453	 199.0	 22.1	 141.9	 -97.7	 1.0	 100.0	 1	 293.0	 105.0;
	75454	 190.25	 40.15	 173.8	 -93.5	 1.0	 100.0	 1	 280.5	 100.0;
	75456	 175.0	 32.9	 142.5	 -76.7	 1.0	 100.0	 1	 230.0	 120.0;
	75459	 162.5	 29.8	 128.9	 -69.3	 1.0	 100.0	 1	 208.0	 117.0;
	75462	 162.5	 15.5	 99.3	 -68.3	 1.0	 100.0	 1	 205.0	 120.0;
	75462	 147.5	 15.1	 96.9	 -66.7	 1.0	 100.0	 1	 200.0	 95.0;
	75463	 130.0	 14.5	 93.0	 -64.0	 1.0	 100.0	 1	 192.0	 68.0;
	75463	 135.0	 29.35	 127.0	 -68.3	 1.0	 100.0	 1	 205.0	 65.0;
	75463	 127.5	 29.35	 127.0	 -68.3	 1.0	 100.0	 1	 205.0	 50.0;
	75464	 113.0	 13.25	 84.8	 -58.3	 1.0	 100.0	 1	 175.0	 51.0;
	75464	 121.625	 13.25	 84.8	 -58.3	 1.0	 100.0	 1	 175.0	 68.25;
	75464	 113.0	 13.25	 84.8	 -58.3	 1.0	 100.0	 1	 175.0	 51.0;
	75464	 113.0	 13.25	 84.8	 -58.3	 1.0	 100.0	 1	 175.0	 51.0;
	75464	 113.0	 13.25	 84.8	 -58.3	 1.0	 100.0	 1	 175.0	 51.0;
	75464	 113.0	 13.25	 84.8	 -58.3	 1.0	 100.0	 1	 175.0	 51.0;
	75464	 113.0	 13.25	 84.8	 -58.3	 1.0	 100.0	 1	 175.0	 51.0;
	75464	 113.0	 13.25	 84.8	 -58.3	 1.0	 100.0	 1	 175.0	 51.0;
	75464	 113.0	 13.25	 84.8	 -58.3	 1.0	 100.0	 1	 175.0	 51.0;
	75464	 113.0	 13.25	 84.8	 -58.3	 1.0	 100.0	 1	 175.0	 51.0;
	75465	 114.1	 23.35	 101.1	 -54.4	 1.0	 100.0	 1	 163.2	 65.0;
	75465	 137.2	 30.0	 129.8	 -69.8	 1.0	 100.0	 1	 209.4	 65.0;
	75468	 121.75	 25.7	 111.2	 -59.8	 1.0	 100.0	 1	 179.5	 64.0;
	75468	 309.5	 35.0	 224.7	 -154.7	 1.0	 100.0	 1	 464.0	 155.0;
	75468	 74.8	 16.25	 70.4	 -37.9	 1.0	 100.0	 1	 113.6	 36.0;
	75468	 86.5	 17.6	 76.2	 -41.0	 1.0	 100.0	 1	 123.0	 50.0;
	75468	 88.0	 18.05	 78.1	 -42.0	 1.0	 100.0	 1	 126.0	 50.0;
	75468	 88.0	 18.05	 78.1	 -42.0	 1.0	 100.0	 1	 126.0	 50.0;
	75468	 88.0	 18.05	 78.1	 -42.0	 1.0	 100.0	 1	 126.0	 50.0;
	75468	 88.0	 18.05	 78.1	 -42.0	 1.0	 100.0	 1	 126.0	 50.0;
	75468	 162.5	 25.35	 109.6	 -58.9	 1.0	 100.0	 1	 220.0	 105.0;
	75468	 145.0	 25.35	 109.6	 -58.9	 1.0	 100.0	 1	 200.0	 90.0;
	75471	 71.8	 0.0	 45.6	 -45.6	 1.0	 100.0	 1	 113.6	 30.0;
	75471	 165.2	 0.0	 85.1	 -85.1	 1.0	 100.0	 1	 230.4	 100.0;
	75474	 76.5	 7.4	 47.5	 -32.7	 1.0	 100.0	 1	 98.0	 55.0;
	75474	 76.5	 7.4	 47.5	 -32.7	 1.0	 100.0	 1	 98.0	 55.0;
	75474	 81.5	 8.15	 52.3	 -36.0	 1.0	 100.0	 1	 108.0	 55.0;
	75474	 81.5	 8.15	 52.3	 -36.0	 1.0	 100.0	 1	 108.0	 55.0;
	75474	 64.0	 14.0	 60.7	 -32.7	 1.0	 100.0	 1	 98.0	 30.0;
	75474	 49.0	 14.0	 60.7	 -32.7	 1.0	 100.0	 1	 98.0	 0.0;
	75474	 76.0	 11.25	 72.2	 -49.7	 1.0	 100.0	 1	 149.0	 3.0;
	75474	 76.0	 11.25	 72.2	 -49.7	 1.0	 100.0	 1	 149.0	 3.0;
	75474	 111.5	 11.25	 72.2	 -49.7	 1.0	 100.0	 1	 220.0	 3.0;
	75476	 51.5	 6.65	 42.6	 -29.3	 1.0	 100.0	 1	 88.0	 15.0;
	75477	 65.5	 6.5	 41.7	 -28.7	 1.0	 100.0	 1	 86.0	 45.0;
	75477	 65.5	 6.5	 41.7	 -28.7	 1.0	 100.0	 1	 86.0	 45.0;
	75477	 65.5	 6.5	 41.7	 -28.7	 1.0	 100.0	 1	 86.0	 45.0;
	75477	 65.5	 6.5	 41.7	 -28.7	 1.0	 100.0	 1	 86.0	 45.0;
	75477	 65.5	 6.5	 41.7	 -28.7	 1.0	 100.0	 1	 86.0	 45.0;
	75477	 65.5	 6.5	 41.7	 -28.7	 1.0	 100.0	 1	 86.0	 45.0;
	75477	 65.5	 6.5	 41.7	 -28.7	 1.0	 100.0	 1	 86.0	 45.0;
	75477	 65.5	 6.5	 41.7	 -28.7	 1.0	 100.0	 1	 86.0	 45.0;
	75479	 37.5	 8.6	 37.2	 -20.0	 1.0	 100.0	 1	 60.0	 15.0;
	75479	 37.5	 8.6	 37.2	 -20.0	 1.0	 100.0	 1	 60.0	 15.0;
	75484	 32.5	 2.45	 15.7	 -10.8	 1.0	 100.0	 1	 32.5	 32.5;
	75484	 32.5	 2.45	 15.7	 -10.8	 1.0	 100.0	 1	 32.5	 32.5;
	75484	 32.5	 2.45	 15.7	 -10.8	 1.0	 100.0	 1	 32.5	 32.5;
...
];

%% generator cost data
%	2	startup	shutdown	n	c(n-1)	...	c0
mpc.gencost = [
	2	 0.0	 0.0	 3	   0.001771	  17.710000	  -1.413000;
	2	 0.0	 0.0	 3	   0.001198	  16.040000	  -1.794000;
	2	 0.0	 0.0	 3	   0.000000	  77.440000	 -113.700000;
	2	 0.0	 0.0	 3	   0.001897	  19.330000	   0.000000;
	2	 0.0	 0.0	 3	   0.001891	  18.070000	   0.000000;
	2	 0.0	 0.0	 3	   0.001893	  18.070000	   0.000000;
	2	 0.0	 0.0	 3	   0.001904	  18.070000	   0.000000;
	2	 0.0	 0.0	 3	   0.001891	  18.070000	   0.000000;
	2	 0.0	 0.0	 3	   0.001698	  16.020000	   0.000000;
	2	 0.0	 0.0	 3	   0.004984	  13.790000	   0.000000;
	2	 0.0	 0.0	 3	   0.000000	  18.580000	 -140.300000;
	2	 0.0	 0.0	 3	   0.000000	  19.860000	 -235.800000;
	2	 0.0	 0.0	 3	   0.000000	  25.200000	 -25.830000;
	2	 0.0	 0.0	 3	   0.079740	  29.580000	  -5.292000;
	2	 0.0	 0.0	 3	   0.000000	  16.430000	   0.000000;
	2	 0.0	 0.0	 3	   0.000000	  16.430000	   0.000000;
	2	 0.0	 0.0	 3	   0.000000	  16.430000	   0.000000;
	2	 0.0	 0.0	 3	   0.000000	  16.430000	   0.000000;
	2	 0.0	 0.0	 3	   0.000000	  16.430000	   0.000000;
	2	 0.0	 0.0	 3	   0.000000	  16.430000	   0.000000;
	2	 0.0	 0.0	 3	   0.000000	  16.430000	   0.000000;
	2	 0.0	 0.0	 3	   0.000000	  16.430000	   0.000000;
	2	 0.0	 0.0	 3	   0.000000	  18.390000	 -65.210000;
	2	 0.0	 0.0	 3	   0.000000	  23.630000	 -74.490000;
	2	 0.0	 0.0	 3	   0.000000	  19.270000	 -52.910000;
	2	 0.0	 0.0	 3	   0.000000	  12.410000	 -22.380000;
	2	 0.0	 0.0	 3	   0.000000	   0.050000	  -2.245000;
	2	 0.0	 0.0	 3	   0.000000	   0.050000	  -2.245000;
	2	 0.0	 0.0	 3	   0.000000	   0.050000	  -2.245000;
	2	 0.0	 0.0	 3	   0.000000	   0.050000	  -2.245000;
	2	 0.0	 0.0	 3	   0.000000	   0.050000	  -2.245000;
	2	 0.0	 0.0	 3	   0.000000	   0.050000	  -2.245000;
	2	 0.0	 0.0	 3	   0.000000	  16.260000	  -5.080000;
	2	 0.0	 0.0	 3	   0.000000	  16.260000	  -5.080000;
	2	 0.0	 0.0	 3	   0.000000	  16.270000	  -5.450000;
	2	 0.0	 0.0	 3	   0.000000	  16.270000	  -5.450000;
	2	 0.0	 0.0	 3	   0.000000	  16.270000	  -5.450000;
	2	 0.0	 0.0	 3	   0.000000	  18.160000	 -20.840000;
	2	 0.0	 0.0	 3	   0.000000	  83.160000	 -84.530000;
	2	 0.0	 0.0	 3	   0.000000	   8.033000	 -167.000000;
	2	 0.0	 0.0	 3	   0.000000	  18.770000	  -5.544000;
	2	 0.0	 0.0	 3	   0.000000	  18.450000	  -5.544000;
	2	 0.0	 0.0	 3	   0.000000	  20.120000	  -5.544000;
	2	 0.0	 0.0	 3	   0.000000	  21.350000	  -5.544000;
	2	 0.0	 0.0	 3	   0.000000	  20.210000	  -5.544000;
	2	 0.0	 0.0	 3	   0.000000	  19.560000	  -5.544000;
	2	 0.0	 0.0	 3	   0.000000	  22.480000	 -268.300000;
	2	 0.0	 0.0	 3	   0.000000	  22.480000	 -268.300000;
	2	 0.0	 0.0	 3	   0.000000	  25.920000	 -39.060000;
	2	 0.0	 0.0	 3	   0.000000	  81.460000	 -82.010000;
	2	 0.0	 0.0	 3	   0.000000	  73.550000	 -85.710000;
	2	 0.0	 0.0	 3	   0.000000	  71.640000	 -85.710000;
	2	 0.0	 0.0	 3	   0.000000	  22.520000	 -39.060000;
	2	 0.0	 0.0	 3	   0.000000	  20.110000	 -40.050000;
	2	 0.0	 0.0	 3	   0.000000	  20.800000	 -40.050000;
	2	 0.0	 0.0	 3	   0.000000	  20.570000	 -40.050000;
	2	 0.0	 0.0	 3	   0.000000	  20.740000	 -40.050000;
	2	 0.0	 0.0	 3	   0.026400	  14.010000	  -4.127000;
	2	 0.0	 0.0	 3	   0.000000	  20.170000	 -39.060000;
	2	 0.0	 0.0	 3	   0.000000	  28.560000	 -75.870000;
	2	 0.0	 0.0	 3	   0.000000	  29.080000	 -75.870000;
	2	 0.0	 0.0	 3	   0.000000	  29.480000	 -65.300000;
	2	 0.0	 0.0	 3	   0.000000	  29.480000	 -65.300000;
	2	 0.0	 0.0	 3	   0.000000	  36.580000	  -6.800000;
	2	 0.0	 0.0	 3	   0.000000	  36.580000	  -6.800000;
	2	 0.0	 0.0	 3	   0.000000	  36.580000	  -6.800000;
	2	 0.0	 0.0	 3	   0.000000	  43.930000	 -23.140000;
	2	 0.0	 0.0	 3	   0.000000	  11.580000	 -10.160000;
	2	 0.0	 0.0	 3	   0.000000	  11.580000	 -10.160000;
	2	 0.0	 0.0	 3	   0.000000	  11.580000	 -10.160000;
	2	 0.0	 0.0	 3	   0.000000	  12.460000	   0.000000;
	2	 0.0	 0.0	 3	   0.000000	  12.460000	   0.000000;
	2	 0.0	 0.0	 3	   0.000000	  12.460000	   0.000000;
	2	 0.0	 0.0	 3	   0.000000	  13.490000	  -5.483000;
	2	 0.0	 0.0	 3	   0.000000	   0.050000	  -2.245000;
	2	 0.0	 0.0	 3	   0.000000	   0.050000	  -2.245000;
	2	 0.0	 0.0	 3	   0.000000	   0.050000	  -2.245000;
	2	 0.0	 0.0	 3	   0.000000	  15.360000	  -3.984000;
	2	 0.0	 0.0	 3	   0.000000	  15.420000	  -5.656000;
	2	 0.0	 0.0	 3	   0.000000	  11.620000	  -3.499000;
	2	 0.0	 0.0	 3	   0.000000	  11.620000	  -3.499000;
	2	 0.0	 0.0	 3	   0.000000	  11.620000	  -3.499000;
	2	 0.0	 0.0	 3	   0.000000	  11.620000	  -3.499000;
	2	 0.0	 0.0	 3	   0.000000	   0.050000	   0.000000;
	2	 0.0	 0.0	 3	   0.000000	   0.050000	   0.000000;
	2	 0.0	 0.0	 3	   0.000000	   0.050000	   0.000000;
	2	 0.0	 0.0	 3	   0.000000	  13.230000	   0.000000;
	2	 0.0	 0.0	 3	   0.000000	  13.230000	   0.000000;
	2	 0.0	 0.0	 3	   0.000000	   0.050000	  -1.660000;
	2	 0.0	 0.0	 3	   0.000000	   0.050000	  -1.660000;
	2	 0.0	 0.0	 3	   0.000000	   0.050000	  -1.660000;
	2	 0.0	 0.0	 3	   0.000000	  13.650000	  -2.974000;
	2	 0.0	 0.0	 3	   0.000000	  13.660000	  -3.102000;
	2	 0.0	 0.0	 3	   0.000000	  13.670000	  -3.258000;
	2	 0.0	 0.0	 3	   0.000000	  13.670000	  -3.258000;
	2	 0.0	 0.0	 3	   0.000000	  16.440000	  -2.824000;
	2	 0.0	 0.0	 3	   0.000000	  16.470000	  -3.470000;
	2	 0.0	 0.0	 3	   0.000000	  16.490000	  -3.968000;
	2	 0.0	 0.0	 3	   0.000000	  16.490000	  -3.968000;
	2	 0.0	 0.0	 3	   0.000000	  11.540000	  -3.248000;
	2	 0.0	 0.0	 3	   0.000000	  11.590000	  -4.495000;
	2	 0.0	 0.0	 3	   0.000000	  11.590000	  -4.543000;
	2	 0.0	 0.0	 3	   0.000000	  10.970000	  -2.115000;
	2	 0.0	 0.0	 3	   0.000000	   0.050000	  -1.395000;
	2	 0.0	 0.0	 3	   0.000000	   0.003105	   0.000000;
	2	 0.0	 0.0	 3	   0.000000	   0.050000	  -1.245000;
	2	 0.0	 0.0	 3	   0.000000	   0.050000	  -1.245000;
	2	 0.0	 0.0	 3	   0.000000	   0.050000	  -1.245000;
	2	 0.0	 0.0	 3	   0.000000	   0.002564	   0.000000;
	2	 0.0	 0.0	 3	   0.000000	  19.250000	  -9.504000;
	2	 0.0	 0.0	 3	   0.000000	  14.470000	  -1.858000;
	2	 0.0	 0.0	 3	   0.000000	  14.470000	  -1.858000;
	2	 0.0	 0.0	 3	   0.000000	  14.490000	  -2.282000;
	2	 0.0	 0.0	 3	   0.000000	  14.490000	  -2.339000;
	2	 0.0	 0.0	 3	   0.000000	  16.000000	   0.000000;
	2	 0.0	 0.0	 3	   0.000000	  16.000000	   0.000000;
	2	 0.0	 0.0	 3	   0.000000	  39.750000	 -40.340000;
	2	 0.0	 0.0	 3	   0.000000	  43.470000	 -21.430000;
	2	 0.0	 0.0	 3	   0.000000	   0.005556	   0.000000;
	2	 0.0	 0.0	 3	   0.000000	   0.005556	   0.000000;
	2	 0.0	 0.0	 3	   0.000000	   0.005556	   0.000000;
	2	 0.0	 0.0	 3	   0.000000	   0.005556	   0.000000;
	2	 0.0	 0.0	 3	   0.000000	   0.005556	   0.000000;
	2	 0.0	 0.0	 3	   0.000000	   0.005556	   0.000000;
	2	 0.0	 0.0	 3	   0.000000	   0.005556	   0.000000;
	2	 0.0	 0.0	 3	   0.000000	   0.005556	   0.000000;
	2	 0.0	 0.0	 3	   0.000000	   0.005556	   0.000000;
	2	 0.0	 0.0	 3	   0.000000	   0.005556	   0.000000;
	2	 0.0	 0.0	 3	   0.000000	   0.005556	   0.000000;
	2	 0.0	 0.0	 3	   0.000000	  21.790000	 -559.200000;
	2	 0.0	 0.0	 3	   0.000000	  21.790000	 -556.300000;
	2	 0.0	 0.0	 3	   0.000000	  82.530000	 -113.000000;
	2	 0.0	 0.0	 3	   0.000000	  78.590000	 -97.990000;
	2	 0.0	 0.0	 3	   0.000000	  88.640000	 -97.990000;
	2	 0.0	 0.0	 3	   0.000000	  81.990000	 -97.990000;
	2	 0.0	 0.0	 3	   0.000000	  86.010000	 -97.990000;
	2	 0.0	 0.0	 3	   0.000000	  16.050000	 -397.600000;
	2	 0.0	 0.0	 3	   0.002735	  17.410000	   0.000000;
	2	 0.0	 0.0	 3	   0.001989	  16.970000	   0.000000;
	2	 0.0	 0.0	 3	   0.000000	  19.050000	 -285.900000;
	2	 0.0	 0.0	 3	   0.000000	  19.050000	 -285.900000;
	2	 0.0	 0.0	 3	   0.003851	  17.900000	   0.000000;
	2	 0.0	 0.0	 3	   0.000000	  18.360000	 -334.000000;
	2	 0.0	 0.0	 3	   0.000000	  18.600000	 -253.600000;
	2	 0.0	 0.0	 3	   0.000000	  18.380000	 -194.700000;
	2	 0.0	 0.0	 3	   0.000000	  18.080000	 -184.100000;
	2	 0.0	 0.0	 3	   0.000000	  79.090000	 -154.100000;
	2	 0.0	 0.0	 3	   0.000000	  72.560000	 -132.600000;
	2	 0.0	 0.0	 3	   0.000000	  22.610000	 -180.000000;
	2	 0.0	 0.0	 3	   0.000000	  17.060000	 -154.800000;
	2	 0.0	 0.0	 3	   0.000000	  19.430000	 -121.700000;
	2	 0.0	 0.0	 3	   0.000000	  22.410000	 -123.900000;
	2	 0.0	 0.0	 3	   0.000000	  22.320000	 -109.100000;
	2	 0.0	 0.0	 3	   0.000000	  22.190000	 -102.000000;
	2	 0.0	 0.0	 3	   0.000000	  22.300000	 -119.400000;
	2	 0.0	 0.0	 3	   0.000000	  22.190000	 -102.000000;
	2	 0.0	 0.0	 3	   0.000000	  22.190000	 -102.000000;
	2	 0.0	 0.0	 3	   0.000000	  22.190000	 -102.000000;
	2	 0.0	 0.0	 3	   0.000000	  22.190000	 -102.000000;
	2	 0.0	 0.0	 3	   0.000000	  22.190000	 -102.000000;
	2	 0.0	 0.0	 3	   0.000000	  22.190000	 -102.000000;
	2	 0.0	 0.0	 3	   0.000000	  22.190000	 -102.000000;
	2	 0.0	 0.0	 3	   0.000000	  22.190000	 -102.000000;
	2	 0.0	 0.0	 3	   0.000000	  19.820000	 -114.500000;
	2	 0.0	 0.0	 3	   0.000000	  20.910000	 -126.800000;
	2	 0.0	 0.0	 3	   0.000000	  21.990000	 -114.500000;
	2	 0.0	 0.0	 3	   0.002667	  20.080000	   0.000000;
	2	 0.0	 0.0	 3	   0.000000	  21.700000	 -73.620000;
	2	 0.0	 0.0	 3	   0.000000	  20.790000	 -56.520000;
	2	 0.0	 0.0	 3	   0.000000	  22.930000	 -58.470000;
	2	 0.0	 0.0	 3	   0.000000	  23.450000	 -58.470000;
	2	 0.0	 0.0	 3	   0.000000	  22.720000	 -58.470000;
	2	 0.0	 0.0	 3	   0.000000	  23.480000	 -58.470000;
	2	 0.0	 0.0	 3	   0.000000	  78.180000	 -133.100000;
	2	 0.0	 0.0	 3	   0.000000	  73.890000	 -106.000000;
	2	 0.0	 0.0	 3	   0.000000	  20.780000	 -67.080000;
	2	 0.0	 0.0	 3	   0.000000	  16.890000	 -172.200000;
	2	 0.0	 0.0	 3	   0.000000	  23.940000	 -44.090000;
	2	 0.0	 0.0	 3	   0.000000	  23.300000	 -44.090000;
	2	 0.0	 0.0	 3	   0.000000	  23.720000	 -50.170000;
	2	 0.0	 0.0	 3	   0.000000	  22.910000	 -50.170000;
	2	 0.0	 0.0	 3	   0.000000	  22.720000	 -30.680000;
	2	 0.0	 0.0	 3	   0.000000	  21.290000	   0.000000;
	2	 0.0	 0.0	 3	   0.000000	  76.020000	 -25.330000;
	2	 0.0	 0.0	 3	   0.000000	  78.200000	 -25.330000;
	2	 0.0	 0.0	 3	   0.004759	  74.370000	   0.000000;
	2	 0.0	 0.0	 3	   0.035930	  35.940000	  -1.194000;
	2	 0.0	 0.0	 3	   0.000000	  24.160000	 -32.390000;
	2	 0.0	 0.0	 3	   0.000000	  26.080000	 -32.390000;
	2	 0.0	 0.0	 3	   0.000000	  24.260000	 -32.390000;
	2	 0.0	 0.0	 3	   0.000000	  27.960000	 -32.390000;
	2	 0.0	 0.0	 3	   0.000000	  28.080000	 -32.390000;
	2	 0.0	 0.0	 3	   0.000000	  25.040000	 -32.390000;
	2	 0.0	 0.0	 3	   0.000000	  26.190000	 -32.390000;
	2	 0.0	 0.0	 3	   0.000000	  25.420000	 -32.390000;
	2	 0.0	 0.0	 3	   0.000000	  19.390000	 -37.780000;
	2	 0.0	 0.0	 3	   0.000000	  19.640000	 -37.780000;
	2	 0.0	 0.0	 3	   0.000000	   0.050000	  -1.620000;
	2	 0.0	 0.0	 3	   0.000000	   0.050000	  -1.620000;
	2	 0.0	 0.0	 3	   0.000000	   0.050000	  -1.620000;
...
];

%% branch data
%	fbus	tbus	r	x	b	rateA	rateB	rateC	ratio	angle	status	angmin	angmax
mpc.branch = [
	35308	 36653	 0.000996849	 0.00712763	 0.260677	 795.0	 795.0	 795.0	 0.0	 0.0	 1	 -7.39375211694	 7.39375211694;
	35308	 75572	 0.000858146	 0.00613538	 0.224361	 795.0	 795.0	 795.0	 0.0	 0.0	 1	 -7.39375211694	 7.39375211694;
	35308	 75628	 0.00141505	 0.0101211	 0.370328	 795.0	 795.0	 795.0	 0.0	 0.0	 1	 -7.39375211694	 7.39375211694;
	35309	 37399	 0.000342626	 0.00634921	 0.419454	 1216.0	 1216.0	 1216.0	 0.0	 0.0	 1	 -7.39375211694	 7.39375211694;
	35309	 37480	 0.00120626	 0.021683	 1.55189	 1216.0	 1216.0	 1216.0	 0.0	 0.0	 1	 -7.39375211694	 7.39375211694;
	35309	 37678	 0.000627527	 0.0112331	 0.799013	 1801.0	 1801.0	 1801.0	 0.0	 0.0	 1	 -7.39375211694	 7.39375211694;
	35309	 75435	 1e-07	 0.0001	 0.0	 1450.0	 1812.5	 2175.0	 0.0	 0.0	 1	 -7.39375211694	 7.39375211694;
	35309	 75435	 1e-07	 0.0001	 0.0	 1450.0	 1812.5	 2175.0	 0.0	 0.0	 1	 -7.39375211694	 7.39375211694;
	35309	 75435	 1e-07	 0.0001	 0.0	 1450.0	 1812.5	 2175.0	 0.0	 0.0	 1	 -7.39375211694	 7.39375211694;
	35310	 37534	 0.000142702	 0.00264344	 0.174541	 2639.0	 2639.0	 2639.0	 0.0	 0.0	 1	 -7.39375211694	 7.39375211694;
	35310	 75439	 1e-07	 0.0001	 0.0	 1350.0	 1687.5	 2025.0	 0.0	 0.0	 1	 -7.39375211694	 7.39375211694;
	35310	 75439	 1e-07	 0.0001	 0.0	 1350.0	 1687.5	 2025.0	 0.0	 0.0	 1	 -7.39375211694	 7.39375211694;
	35311	 36648	 0.000504187	 0.00902042	 0.641111	 1801.0	 1801.0	 1801.0	 0.0	 0.0	 1	 -7.39375211694	 7.39375211694;
	35311	 36774	 0.000128692	 0.00230036	 0.163273	 1925.0	 1925.0	 1925.0	 0.0	 0.0	 1	 -7.39375211694	 7.39375211694;
	35311	 36974	 0.000139305	 0.00258051	 0.170384	 1273.0	 1273.0	 1273.0	 0.0	 0.0	 1	 -7.39375211694	 7.39375211694;
	35312	 37031	 0.00126359	 0.0227264	 1.62794	 1216.0	 1216.0	 1216.0	 0.0	 0.0	 1	 -7.39375211694	 7.39375211694;
	35312	 37069	 0.000789981	 0.0146676	 0.971817	 1216.0	 1216.0	 1216.0	 0.0	 0.0	 1	 -7.39375211694	 7.39375211694;
	35312	 37680	 0.000874784	 0.0156817	 1.11783	 1216.0	 1216.0	 1216.0	 0.0	 0.0	 1	 -7.39375211694	 7.39375211694;
	35313	 37017	 0.000697634	 0.00498739	 0.18236	 795.0	 795.0	 795.0	 0.0	 0.0	 1	 -7.39375211694	 7.39375211694;
	35313	 37254	 3.55042e-05	 0.000322542	 0.0121614	 907.0	 907.0	 907.0	 0.0	 0.0	 1	 -7.39375211694	 7.39375211694;
	35313	 37276	 0.000654348	 0.00467785	 0.171037	 795.0	 795.0	 795.0	 0.0	 0.0	 1	 -7.39375211694	 7.39375211694;
	35313	 37281	 0.000489084	 0.0056055	 0.219983	 1067.0	 1067.0	 1067.0	 0.0	 0.0	 1	 -7.39375211694	 7.39375211694;
	35314	 36648	 0.000887923	 0.0159187	 1.13488	 1216.0	 1216.0	 1216.0	 0.0	 0.0	 1	 -7.39375211694	 7.39375211694;
	35314	 37471	 6.94343e-05	 0.00124107	 0.0880822	 1216.0	 1216.0	 1216.0	 0.0	 0.0	 1	 -7.39375211694	 7.39375211694;
	35314	 37617	 0.000997355	 0.0178951	 1.27731	 1216.0	 1216.0	 1216.0	 0.0	 0.0	 1	 -7.39375211694	 7.39375211694;
	35314	 75449	 1e-07	 0.0001	 0.0	 800.0	 1000.0	 1200.0	 0.0	 0.0	 1	 -7.39375211694	 7.39375211694;
	35314	 75449	 1e-07	 0.0001	 0.0	 800.0	 1000.0	 1200.0	 0.0	 0.0	 1	 -7.39375211694	 7.39375211694;
	35315	 36833	 0.00146191	 0.0104567	 0.382633	 795.0	 795.0	 795.0	 0.0	 0.0	 1	 -7.39375211694	 7.39375211694;
	35316	 36685	 0.000211073	 0.00377329	 0.267861	 1216.0	 1216.0	 1216.0	 0.0	 0.0	 1	 -7.39375211694	 7.39375211694;
	35316	 37467	 0.000472255	 0.00875489	 0.578731	 1216.0	 1216.0	 1216.0	 0.0	 0.0	 1	 -7.39375211694	 7.39375211694;
	35316	 75454	 1e-07	 0.0001	 0.0	 1250.0	 1562.5	 1875.0	 0.0	 0.0	 1	 -7.39375211694	 7.39375211694;
	35317	 36685	 0.000183845	 0.00328642	 0.233284	 1216.0	 1216.0	 1216.0	 0.0	 0.0	 1	 -7.39375211694	 7.39375211694;
	35317	 37467	 0.000498211	 0.00891331	 0.633477	 1216.0	 1216.0	 1216.0	 0.0	 0.0	 1	 -7.39375211694	 7.39375211694;
	35317	 75456	 1e-07	 0.0001	 0.0	 1250.0	 1562.5	 1875.0	 0.0	 0.0	 1	 -7.39375211694	 7.39375211694;
	35318	 37181	 0.000161145	 0.00288054	 0.204464	 1925.0	 1925.0	 1925.0	 0.0	 0.0	 1	 -7.39375211694	 7.39375211694;
	35318	 37534	 0.000113461	 0.00202806	 0.143944	 2639.0	 2639.0	 2639.0	 0.0	 0.0	 1	 -7.39375211694	 7.39375211694;
	35318	 75458	 1e-07	 0.0001	 0.0	 1250.0	 1562.5	 1875.0	 0.0	 0.0	 1	 -7.39375211694	 7.39375211694;
	35318	 75458	 1e-07	 0.0001	 0.0	 1250.0	 1562.5	 1875.0	 0.0	 0.0	 1	 -7.39375211694	 7.39375211694;
	35319	 37069	 0.000283058	 0.00506083	 0.359334	 1216.0	 1216.0	 1216.0	 0.0	 0.0	 1	 -7.39375211694	 7.39375211694;
	35320	 37480	 0.000476263	 0.00851995	 0.605446	 1216.0	 1216.0	 1216.0	 0.0	 0.0	 1	 -7.39375211694	 7.39375211694;
	35321	 37409	 0.000200416	 0.00358272	 0.254326	 1801.0	 1801.0	 1801.0	 0.0	 0.0	 1	 -7.39375211694	 7.39375211694;
	35321	 37422	 6.61987e-05	 0.0012262	 0.080956	 1632.0	 1632.0	 1632.0	 0.0	 0.0	 1	 -7.39375211694	 7.39375211694;
	35322	 37275	 6.66756e-05	 0.00123504	 0.0815394	 1756.0	 1756.0	 1756.0	 0.0	 0.0	 1	 -7.39375211694	 7.39375211694;
	35322	 75465	 1e-07	 0.0001	 0.0	 900.0	 1125.0	 1350.0	 0.0	 0.0	 1	 -7.39375211694	 7.39375211694;
	35323	 36835	 0.000167828	 0.00119963	 0.0438542	 795.0	 795.0	 795.0	 0.0	 0.0	 1	 -7.39375211694	 7.39375211694;
	35323	 37531	 0.00216657	 0.0155097	 0.568207	 795.0	 795.0	 795.0	 0.0	 0.0	 1	 -7.39375211694	 7.39375211694;
	35323	 76012	 0.00282878	 0.0207985	 0.724361	 795.0	 795.0	 795.0	 0.0	 0.0	 1	 -7.39375211694	 7.39375211694;
	35324	 36691	 0.000215821	 0.00385821	 0.273892	 1216.0	 1216.0	 1216.0	 0.0	 0.0	 1	 -7.39375211694	 7.39375211694;
	35324	 36976	 9.87221e-05	 0.0017646	 0.125242	 1216.0	 1216.0	 1216.0	 0.0	 0.0	 1	 -7.39375211694	 7.39375211694;
	35324	 37282	 0.000199857	 0.00357273	 0.253617	 1216.0	 1216.0	 1216.0	 0.0	 0.0	 1	 -7.39375211694	 7.39375211694;
	35325	 37594	 6.51401e-05	 0.00116431	 0.0826343	 1216.0	 1216.0	 1216.0	 0.0	 0.0	 1	 -7.39375211694	 7.39375211694;
	35325	 39084	 0.00132786	 0.0228344	 1.79552	 1216.0	 1216.0	 1216.0	 0.0	 0.0	 1	 -7.39375211694	 7.39375211694;
	35325	 75470	 1e-07	 0.0001	 0.0	 800.0	 1000.0	 1200.0	 0.0	 0.0	 1	 -7.39375211694	 7.39375211694;
	35325	 75470	 1e-07	 0.0001	 0.0	 800.0	 1000.0	 1200.0	 0.0	 0.0	 1	 -7.39375211694	 7.39375211694;
	35326	 37078	 0.02387	 0.0955749	 0.0323083	 175.0	 175.0	 175.0	 0.0	 0.0	 1	 -7.39375211694	 7.39375211694;
	35327	 36811	 0.000520536	 0.00505227	 0.192624	 947.0	 947.0	 947.0	 0.0	 0.0	 1	 -7.39375211694	 7.39375211694;
	35327	 76057	 0.00606811	 0.0439154	 1.63431	 795.0	 795.0	 795.0	 0.0	 0.0	 1	 -7.39375211694	 7.39375211694;
	35328	 36705	 0.0353648	 0.0865974	 0.0237009	 118.0	 118.0	 118.0	 0.0	 0.0	 1	 -7.39375211694	 7.39375211694;
	35328	 37013	 0.0059117	 0.0227276	 0.00431599	 142.0	 142.0	 142.0	 0.0	 0.0	 1	 -7.39375211694	 7.39375211694;
	35329	 37409	 0.000229782	 0.00410787	 0.291626	 1216.0	 1216.0	 1216.0	 0.0	 0.0	 1	 -7.39375211694	 7.39375211694;
	35329	 37460	 1.29368e-05	 0.000231228	 0.0164105	 2213.0	 2213.0	 2213.0	 0.0	 0.0	 1	 -7.39375211694	 7.39375211694;
	35329	 37461	 0.000102296	 0.00182849	 0.129777	 1216.0	 1216.0	 1216.0	 0.0	 0.0	 1	 -7.39375211694	 7.39375211694;
	35330	 37091	 0.00143939	 0.00484963	 0.00120524	 142.0	 142.0	 142.0	 0.0	 0.0	 1	 -7.39375211694	 7.39375211694;
	35330	 37092	 0.00393534	 0.0107142	 0.00236045	 118.0	 118.0	 118.0	 0.0	 0.0	 1	 -7.39375211694	 7.39375211694;
	35331	 37508	 0.00278279	 0.0129032	 0.00428842	 191.0	 191.0	 191.0	 0.0	 0.0	 1	 -7.39375211694	 7.39375211694;
	35331	 37510	 0.0186721	 0.0760002	 0.0185224	 159.0	 159.0	 159.0	 0.0	 0.0	 1	 -7.39375211694	 7.39375211694;
	35331	 37533	 0.0144201	 0.0362505	 0.00939188	 118.0	 118.0	 118.0	 0.0	 0.0	 1	 -7.39375211694	 7.39375211694;
	35332	 36616	 0.00529408	 0.0184504	 0.00427816	 142.0	 142.0	 142.0	 0.0	 0.0	 1	 -7.39375211694	 7.39375211694;
	35332	 36617	 0.0100975	 0.0253831	 0.00657606	 118.0	 118.0	 118.0	 0.0	 0.0	 1	 -7.39375211694	 7.39375211694;
	35332	 36969	 0.014859	 0.0344939	 0.0105094	 118.0	 118.0	 118.0	 0.0	 0.0	 1	 -7.39375211694	 7.39375211694;
	35332	 37710	 0.00959988	 0.024678	 0.00611094	 118.0	 118.0	 118.0	 0.0	 0.0	 1	 -7.39375211694	 7.39375211694;
	35333	 37365	 0.000209093	 0.00373789	 0.265346	 1216.0	 1216.0	 1216.0	 0.0	 0.0	 1	 -7.39375211694	 7.39375211694;
	35333	 37594	 0.000300653	 0.00537563	 0.381708	 1216.0	 1216.0	 1216.0	 0.0	 0.0	 1	 -7.39375211694	 7.39375211694;
	35334	 37415	 0.000503707	 0.00259229	 0.00495588	 308.0	 308.0	 308.0	 0.0	 0.0	 1	 -7.39375211694	 7.39375211694;
	35334	 76737	 0.0199497	 0.105807	 0.192573	 308.0	 308.0	 308.0	 0.0	 0.0	 1	 -7.39375211694	 7.39375211694;
	35335	 36823	 0.00882349	 0.0302688	 0.00725168	 142.0	 142.0	 142.0	 0.0	 0.0	 1	 -7.39375211694	 7.39375211694;
	35335	 37610	 0.00822482	 0.0247562	 0.00774518	 142.0	 142.0	 142.0	 0.0	 0.0	 1	 -7.39375211694	 7.39375211694;
	35335	 37611	 0.0106513	 0.0371223	 0.00860817	 142.0	 142.0	 142.0	 0.0	 0.0	 1	 -7.39375211694	 7.39375211694;
	35335	 37612	 0.0344299	 0.0815603	 0.0238689	 118.0	 118.0	 118.0	 0.0	 0.0	 1	 -7.39375211694	 7.39375211694;
	35335	 37692	 0.0400586	 0.0930342	 0.0283592	 118.0	 118.0	 118.0	 0.0	 0.0	 1	 -7.39375211694	 7.39375211694;
	35336	 37404	 0.0173105	 0.0645544	 0.0130476	 142.0	 142.0	 142.0	 0.0	 0.0	 1	 -7.39375211694	 7.39375211694;
	35336	 37654	 0.0538472	 0.158587	 0.0521129	 142.0	 142.0	 142.0	 0.0	 0.0	 1	 -7.39375211694	 7.39375211694;
	35336	 75484	 0.00335697	 0.0154003	 0.00394509	 175.0	 175.0	 175.0	 0.0	 0.0	 1	 -7.39375211694	 7.39375211694;
	35336	 75996	 0.0145679	 0.0396646	 0.00873915	 118.0	 118.0	 118.0	 0.0	 0.0	 1	 -7.39375211694	 7.39375211694;
	35337	 37100	 0.001709	 0.008145	 0.002359	 244.0	 244.0	 268.4	 0.0	 0.0	 1	 -7.39375211694	 7.39375211694;
	35337	 37101	 0.001688	 0.007145	 0.002155	 244.0	 244.0	 244.0	 0.0	 0.0	 1	 -7.39375211694	 7.39375211694;
	35337	 75900	 0.00591	 0.015865	 0.003596	 244.0	 244.0	 244.0	 0.0	 0.0	 1	 -7.39375211694	 7.39375211694;
	35338	 36734	 0.00293584	 0.0207661	 0.176168	 549.0	 549.0	 549.0	 0.0	 0.0	 1	 -7.39375211694	 7.39375211694;
	35338	 75995	 0.00127281	 0.00872567	 0.0787385	 549.0	 549.0	 549.0	 0.0	 0.0	 1	 -7.39375211694	 7.39375211694;
	35339	 36976	 9.04912e-05	 0.0016762	 0.110668	 1216.0	 1216.0	 1216.0	 0.0	 0.0	 1	 -7.39375211694	 7.39375211694;
	35339	 37031	 0.00123256	 0.0221614	 1.58673	 1216.0	 1216.0	 1216.0	 0.0	 0.0	 1	 -7.39375211694	 7.39375211694;
	35339	 37282	 0.000195265	 0.00349062	 0.247785	 1216.0	 1216.0	 1216.0	 0.0	 0.0	 1	 -7.39375211694	 7.39375211694;
	35340	 37434	 0.00118975	 0.00811511	 0.0739817	 549.0	 549.0	 549.0	 0.0	 0.0	 1	 -7.39375211694	 7.39375211694;
	35340	 75649	 0.0014996	 0.0103792	 0.0918717	 549.0	 549.0	 549.0	 0.0	 0.0	 1	 -7.39375211694	 7.39375211694;
	35341	 37069	 0.00115204	 0.0206978	 1.48025	 1216.0	 1216.0	 1216.0	 0.0	 0.0	 1	 -7.39375211694	 7.39375211694;
	35341	 37460	 4.78509e-05	 0.000886339	 0.058517	 1216.0	 1216.0	 1216.0	 0.0	 0.0	 1	 -7.39375211694	 7.39375211694;
	35342	 36917	 0.00327518	 0.0076025	 0.00231611	 118.0	 118.0	 118.0	 0.0	 0.0	 1	 -7.39375211694	 7.39375211694;
	35377	 37461	 0.00107443	 0.0192901	 1.37818	 1216.0	 1216.0	 1216.0	 0.0	 0.0	 1	 -7.39375211694	 7.39375211694;
	35377	 38603	 0.000855925	 0.0153417	 1.09339	 4345.0	 4345.0	 4345.0	 0.0	 0.0	 1	 -7.39375211694	 7.39375211694;
	35377	 38972	 0.000358611	 0.00641285	 0.455456	 1216.0	 1216.0	 1216.0	 0.0	 0.0	 1	 -7.39375211694	 7.39375211694;
	35377	 75490	 1e-07	 0.0001	 0.0	 2200.0	 2375.0	 2650.0	 0.0	 0.0	 1	 -7.39375211694	 7.39375211694;
	35378	 35392	 1.45658e-05	 0.000260345	 0.0184769	 1925.0	 1925.0	 1925.0	 0.0	 0.0	 1	 -7.39375211694	 7.39375211694;
	35378	 39326	 0.000286393	 0.00530645	 0.350495	 1216.0	 1216.0	 1216.0	 0.0	 0.0	 1	 -7.39375211694	 7.39375211694;
	35378	 75493	 1e-07	 0.0001	 0.0	 1450.0	 1812.5	 2175.0	 0.0	 0.0	 1	 -7.39375211694	 7.39375211694;
	35378	 75493	 1e-07	 0.0001	 0.0	 1450.0	 1812.5	 2175.0	 0.0	 0.0	 1	 -7.39375211694	 7.39375211694;
	35379	 38861	 3.92654e-05	 0.000701822	 0.0498093	 1273.0	 1273.0	 1273.0	 0.0	 0.0	 1	 -7.39375211694	 7.39375211694;
	35379	 39326	 0.000361236	 0.00645983	 0.458799	 1216.0	 1216.0	 1216.0	 0.0	 0.0	 1	 -7.39375211694	 7.39375211694;
	35379	 75495	 1e-07	 0.0001	 0.0	 1250.0	 1562.5	 1875.0	 0.0	 0.0	 1	 -7.39375211694	 7.39375211694;
	35379	 75495	 1e-07	 0.0001	 0.0	 1250.0	 1562.5	 1875.0	 0.0	 0.0	 1	 -7.39375211694	 7.39375211694;
	35380	 36691	 0.00217813	 0.0397097	 2.90163	 1216.0	 1216.0	 1216.0	 0.0	 0.0	 1	 -7.39375211694	 7.39375211694;
	35380	 38396	 0.000131325	 0.00234742	 0.166615	 1216.0	 1216.0	 1216.0	 0.0	 0.0	 1	 -7.39375211694	 7.39375211694;
	35380	 39084	 0.000140834	 0.00251741	 0.178683	 1703.0	 1703.0	 1703.0	 0.0	 0.0	 1	 -7.39375211694	 7.39375211694;
	35380	 75498	 1e-07	 0.0001	 0.0	 1200.0	 1500.0	 1800.0	 0.0	 0.0	 1	 -7.39375211694	 7.39375211694;
	35381	 38861	 0.0003525	 0.00630347	 0.447677	 1216.0	 1216.0	 1216.0	 0.0	 0.0	 1	 -7.39375211694	 7.39375211694;
	35381	 39396	 0.00146511	 0.0273686	 1.82974	 1801.0	 1801.0	 1801.0	 0.0	 0.0	 1	 -7.39375211694	 7.39375211694;
	35381	 75501	 1e-07	 0.0001	 0.0	 650.0	 812.5	 975.0	 0.0	 0.0	 1	 -7.39375211694	 7.39375211694;
	35382	 39636	 8.02344e-05	 0.00143412	 0.101785	 1448.0	 1448.0	 1448.0	 0.0	 0.0	 1	 -7.39375211694	 7.39375211694;
	35382	 75505	 1e-07	 0.0001	 0.0	 750.0	 937.5	 1125.0	 0.0	 0.0	 1	 -7.39375211694	 7.39375211694;
	35382	 75505	 1e-07	 0.0001	 0.0	 750.0	 937.5	 1125.0	 0.0	 0.0	 1	 -7.39375211694	 7.39375211694;
	35383	 39658	 0.0016754	 0.0119863	 0.438741	 795.0	 795.0	 795.0	 0.0	 0.0	 1	 -7.39375211694	 7.39375211694;
	35383	 76323	 0.00134012	 0.00983351	 0.341487	 795.0	 795.0	 795.0	 0.0	 0.0	 1	 -7.39375211694	 7.39375211694;
	35384	 38801	 0.00192771	 0.0141539	 0.491957	 795.0	 795.0	 795.0	 0.0	 0.0	 1	 -7.39375211694	 7.39375211694;
	35384	 39658	 6.97151e-05	 0.000498317	 0.0182165	 795.0	 795.0	 795.0	 0.0	 0.0	 1	 -7.39375211694	 7.39375211694;
	35384	 39665	 0.000237284	 0.00169612	 0.0620048	 795.0	 795.0	 795.0	 0.0	 0.0	 1	 -7.39375211694	 7.39375211694;
	35385	 38944	 0.00368264	 0.0264391	 0.972679	 795.0	 795.0	 795.0	 0.0	 0.0	 1	 -7.39375211694	 7.39375211694;
	35385	 39807	 0.000379745	 0.00278503	 0.0966416	 795.0	 795.0	 795.0	 0.0	 0.0	 1	 -7.39375211694	 7.39375211694;
	35386	 39334	 6.36724e-05	 0.00113808	 0.0807723	 1320.0	 1320.0	 1320.0	 0.0	 0.0	 1	 -7.39375211694	 7.39375211694;
	35386	 39338	 0.000192234	 0.0035612	 0.23516	 3959.0	 3959.0	 3959.0	 0.0	 0.0	 1	 -7.39375211694	 7.39375211694;
	35387	 36623	 0.00173861	 0.0314556	 2.27297	 1216.0	 1216.0	 1216.0	 0.0	 0.0	 1	 -7.39375211694	 7.39375211694;
	35387	 39538	 0.000764861	 0.0137016	 0.975666	 1573.0	 1573.0	 1573.0	 0.0	 0.0	 1	 -7.39375211694	 7.39375211694;
	35387	 39567	 0.000685001	 0.0122655	 0.872823	 1387.0	 1387.0	 1387.0	 0.0	 0.0	 1	 -7.39375211694	 7.39375211694;
	35387	 75513	 1e-07	 0.0001	 0.0	 1250.0	 1562.5	 1875.0	 0.0	 0.0	 1	 -7.39375211694	 7.39375211694;
	35387	 75513	 1e-07	 0.0001	 0.0	 1250.0	 1562.5	 1875.0	 0.0	 0.0	 1	 -7.39375211694	 7.39375211694;
	35388	 38972	 0.000236146	 0.0042217	 0.299712	 1925.0	 1925.0	 1925.0	 0.0	 0.0	 1	 -7.39375211694	 7.39375211694;
	35388	 38975	 5.27743e-05	 0.000943283	 0.0669466	 2896.0	 2896.0	 2896.0	 0.0	 0.0	 1	 -7.39375211694	 7.39375211694;
	35388	 39183	 0.000960665	 0.0172319	 1.22946	 1216.0	 1216.0	 1216.0	 0.0	 0.0	 1	 -7.39375211694	 7.39375211694;
	35389	 38944	 0.000345499	 0.00246969	 0.0902869	 795.0	 795.0	 795.0	 0.0	 0.0	 1	 -7.39375211694	 7.39375211694;
	35389	 39182	 0.00119296	 0.00853102	 0.312065	 795.0	 795.0	 795.0	 0.0	 0.0	 1	 -7.39375211694	 7.39375211694;
	35389	 39568	 0.00213429	 0.0152779	 0.559681	 795.0	 795.0	 795.0	 0.0	 0.0	 1	 -7.39375211694	 7.39375211694;
	35390	 39721	 0.00063357	 0.00432118	 0.03939	 549.0	 549.0	 549.0	 0.0	 0.0	 1	 -7.39375211694	 7.39375211694;
	35390	 39858	 0.000483277	 0.00335984	 0.0294605	 549.0	 549.0	 549.0	 0.0	 0.0	 1	 -7.39375211694	 7.39375211694;
	35391	 38453	 0.0069818	 0.0187439	 0.00424803	 118.0	 118.0	 118.0	 0.0	 0.0	 1	 -7.39375211694	 7.39375211694;
	35391	 38454	 0.0107273	 0.0283512	 0.00663626	 118.0	 118.0	 118.0	 0.0	 0.0	 1	 -7.39375211694	 7.39375211694;
	35391	 39154	 0.0244353	 0.0614352	 0.0159191	 118.0	 118.0	 118.0	 0.0	 0.0	 1	 -7.39375211694	 7.39375211694;
	35391	 39156	 0.0179641	 0.0570493	 0.0160074	 142.0	 142.0	 142.0	 0.0	 0.0	 1	 -7.39375211694	 7.39375211694;
	35392	 39334	 0.000416121	 0.00744253	 0.528721	 1756.0	 1756.0	 1756.0	 0.0	 0.0	 1	 -7.39375211694	 7.39375211694;
	35393	 37495	 0.0274598	 0.0750387	 0.020399	 128.0	 128.0	 128.0	 0.0	 0.0	 1	 -7.39375211694	 7.39375211694;
	35393	 38764	 0.0731633	 0.184226	 0.0478204	 118.0	 118.0	 118.0	 0.0	 0.0	 1	 -7.39375211694	 7.39375211694;
	35394	 38428	 0.000332831	 0.00595143	 0.422643	 1216.0	 1216.0	 1216.0	 0.0	 0.0	 1	 -7.39375211694	 7.39375211694;
	35395	 39670	 3.4858e-05	 0.000623046	 0.0442183	 1216.0	 1216.0	 1216.0	 0.0	 0.0	 1	 -7.39375211694	 7.39375211694;
	35395	 75527	 1e-07	 0.0001	 0.0	 400.0	 500.0	 600.0	 0.0	 0.0	 1	 -7.39375211694	 7.39375211694;
	35395	 75527	 1e-07	 0.0001	 0.0	 400.0	 500.0	 600.0	 0.0	 0.0	 1	 -7.39375211694	 7.39375211694;
...